79
Final structure: -123.748 hartree
Mg           0.045070997          0.032242589          0.327043398
C           -2.218621832         -2.547761589          0.530596897
C           -2.553984092          2.203879204          0.142671970
C            2.298655939          2.529789301          0.136461377
C            2.644957095         -2.280282786          0.233905474
N           -2.092411617         -0.172598385          0.385474477
C           -2.817892470         -1.311695413          0.543167983
C           -4.288760545         -1.000485303          0.705913524
C           -4.366261207          0.427412697          0.143713369
C           -2.922554490          0.883326513          0.241293258
C           -4.825352743          0.451761224         -1.319652052
C           -4.682709245         -1.033628318          2.196429204
C           -6.196407155         -0.964865596          2.384598473
N           -0.099294181          2.021830361          0.197809475
C           -1.257881140          2.747722775          0.159745455
C           -0.943990519          4.142349935          0.102223316
C            0.438198053          4.247710967          0.103153907
C            0.947302911          2.894744536          0.169247530
C           -1.963201915          5.237075508          0.105169755
C            1.296703086          5.435681313          0.040052786
O            2.455989519          5.428769888          0.399026432
C            0.699528161          6.709727879         -0.526856321
N            2.151259863          0.104367127          0.213724314
C            2.838215503          1.262765153          0.156460898
C            4.330655116          1.016197137          0.051435507
C            4.441151668         -0.487114841          0.345911518
C            3.001717891         -0.950901962          0.243599295
C            4.832433890          1.371002757         -1.353845899
C            5.010459753         -0.792977416          1.745254823
C            4.129162995         -0.268464339          2.878652881
N            0.234511194         -1.947811292          0.332454777
C            1.332390337         -2.777277945          0.254618883
C            0.915098494         -4.150915419          0.246925321
C           -0.466841420         -4.121662752          0.344764761
C           -0.837445159         -2.748459487          0.408023755
C            1.800296046         -5.346953971          0.161959260
C           -1.661080662         -4.936245559          0.377130750
O           -1.810302455         -6.121782714          0.247876584
C           -2.852381042         -3.927117673          0.603245278
C           -3.425658790         -4.254987479          1.969396135
O           -3.004678791         -3.824504705          3.011847159
O           -4.447072493         -5.103314290          1.874851985
C           -4.999217228         -5.552853457          3.112676884
H           -3.369227726          2.913795750          0.042113724
H            3.011140020          3.345450116          0.091506431
H            3.448289767         -3.010432421          0.227278570
H           -4.912168078         -1.707945327          0.147483761
H           -5.028168326          1.070801114          0.733305940
H           -4.790291280          1.470876109         -1.705508958
H           -5.847437552          0.081666783         -1.399561914
H           -4.174168044         -0.175349122         -1.930582471
H           -4.202070926         -0.193811735          2.709530474
H           -4.307468576         -1.951922758          2.650864784
H           -6.678767719         -1.815415757          1.900620862
H           -6.604931709         -0.047426136          1.958815917
H           -1.646739169          6.060778889          0.745269100
H           -2.923971752          4.877545838          0.473104020
H           -2.113413943          5.627486794         -0.904123786
H            0.042228628          6.507077951         -1.369238751
H            1.511426195          7.364224780         -0.839726218
H            0.132876491          7.216886188          0.253548184
H            4.880741097          1.620485954          0.781488882
H            5.069364474         -0.995918079         -0.394576581
H            4.677226786          2.431982782         -1.549178633
H            4.291729068          0.795083695         -2.106276731
H            5.896770591          1.152058911         -1.439318358
H            6.009531648         -0.352748991          1.822721071
H            5.115475969         -1.878111875          1.846344250
H            3.133449088         -0.716070386          2.829123177
H            4.023875300          0.815698014          2.823617909
H            4.574321783         -0.522387304          3.840438894
H            2.412546174         -5.309041875         -0.741449342
H            1.200008871         -6.256128352          0.143085553
H            2.473561419         -5.387853050          1.021068192
H           -3.619682911         -4.101801534         -0.156185602
H           -5.786476286         -6.264605197          2.867413455
H           -5.413052752         -4.707049360          3.669244479
H           -4.224315518         -6.035145581          3.714331798
H           -6.437762423         -0.988453190          3.447398659
