140
Non-converged structure: -197.982 hartree
Mg          -3.098920044         16.758171393         27.318732547
C           -3.071327800         15.697736567         30.521140852
C           -5.070197072         19.492544763         28.257587907
C           -2.894150603         17.914669249         24.141259914
C           -0.801295058         14.275891604         26.420188103
N           -4.117892482         17.454739246         29.212330104
C           -3.873446498         16.865313834         30.431692957
C           -4.459833642         17.813741529         31.508367627
C           -5.453816729         18.746549734         30.699122954
C           -4.900497254         18.552897275         29.286064356
C           -6.953635509         18.270805418         30.766849250
C           -3.303819310         18.615908787         32.272761435
C           -3.141768229         18.566548942         33.821181819
C           -1.780786480         19.226767293         34.217307405
O           -0.916462450         19.541064826         33.439055467
O           -1.607095222         19.374288458         35.587211263
N           -3.704600278         18.517881871         26.380594304
C           -4.541692476         19.482318079         26.935681304
C           -4.767384538         20.531601560         25.917149963
C           -4.120131900         20.149258332         24.741253865
C           -3.520441462         18.813155030         25.040737823
C           -5.493113626         21.814911878         26.175367814
C           -3.874011027         20.703426720         23.407563875
O           -2.882036085         20.374572812         22.787226772
C           -4.608017499         21.764720906         22.773508296
N           -2.051864105         16.183841979         25.555121635
C           -2.280866616         16.735892775         24.362379675
C           -1.825640689         15.850176991         23.199769439
C           -0.854029566         14.874282126         23.935147445
C           -1.291692344         15.045291380         25.415065239
C           -3.032558787         15.208984831         22.452231356
C            0.642291121         15.262137706         23.828072777
C            0.906433151         16.486792489         24.677470038
N           -2.204972024         15.170240919         28.195631760
C           -1.195566521         14.334187616         27.794968336
C           -0.696290456         13.623315703         28.920525680
C           -1.420778690         14.047086545         30.007465287
C           -2.350007406         15.001938958         29.513359238
C            0.450005676         12.692522236         28.928398374
C           -1.687229285         13.888408431         31.375616043
O           -1.248536648         13.060957561         32.144875979
C           -2.778977064         14.932741029         31.832977645
C           -2.000850281         15.640898593         32.898484074
O           -1.157124112         16.489348886         32.728866506
O           -2.279397736         15.068547109         34.130618356
C           -1.344105291         15.335508878         35.216404977
C           -0.273627968         19.842547321         36.015000767
C           -0.519059308         20.350200388         37.433155258
C           -1.164324307         19.703520124         38.432337995
C           -1.753358595         18.285918407         38.329441370
C           -1.386652132         20.371095424         39.770580815
C           -0.532743873         19.796798560         40.970894128
C            0.952775137         20.300639846         40.913986928
C            1.195923577         21.230222639         42.148280050
C            0.358166819         22.504233746         41.912536129
C            2.714599924         21.462041870         42.387635156
C            3.011665379         21.604196623         43.832801965
C            4.510472366         21.933328566         44.059157363
C            4.969619641         21.771723246         45.548899708
C            5.712084065         23.017547327         45.999139000
C            5.841501922         20.519293753         45.690027058
C            4.959551357         19.308372421         45.415807895
C            5.202147651         18.315627720         44.216376946
C            5.716004120         18.704581054         42.806599940
C            5.622707909         17.495416505         41.874633475
C            7.133141952         19.340150469         42.805934481
H           -5.747042081         20.337688703         28.471668727
H           -2.929894469         18.246359166         23.099994520
H           -0.059157071         13.516624557         26.177013565
H           -4.941598549         17.147998591         32.250140286
H           -5.337707019         19.831252847         30.893673203
H           -7.615971974         18.881219163         30.122734880
H           -7.238536593         18.371562304         31.827518631
H           -6.960417338         17.223179387         30.408090008
H           -3.441237709         19.673804670         31.980383351
H           -2.350165783         18.332946260         31.786753646
H           -3.175346612         17.528835022         34.194378952
H           -3.917666107         19.115917366         34.382806288
H           -4.907628772         22.654613280         25.768884489
H           -5.690733578         21.960597458         27.244321543
H           -6.462417536         21.774039358         25.657149851
H           -5.680587692         21.821965281         23.000849537
H           -4.508296652         21.649329019         21.687338302
H           -4.133535453         22.725365134         23.012098010
H           -1.296061618         16.438939101         22.443931120
H           -1.034998959         13.839297200         23.628970314
H           -3.144299623         15.464676641         21.396944284
H           -3.973954265         15.501440202         22.930896472
H           -2.948057243         14.128308610         22.588799564
H            0.989875224         15.423082896         22.802979835
H            1.220953447         14.437139139         24.251163799
H            0.806191325         16.322626371         25.746644032
H            0.423683705         17.366942889         24.233110646
H            1.965367627         16.747453043         24.595689394
H            0.984779776         12.624713231         27.978141383
H            0.151637574         11.712121118         29.308107279
H            1.165063472         13.071218457         29.668023118
H           -3.595989417         14.408501838         32.351597676
H           -1.351288240         14.555713068         35.997030710
H           -1.626885867         16.255293957         35.758801808
H           -0.301205908         15.440964696         34.879074481
H            0.074379766         20.647783790         35.349532001
H            0.359314244         18.939678830         35.951513470
H           -0.238996948         21.387788195         37.669691642
H           -2.782559601         18.335388553         37.939997807
H           -1.769774787         17.774338336         39.302317464
H           -1.201481635         17.687529564         37.594937350
H           -2.463227170         20.271533783         39.974178105
H           -1.207991404         21.454278362         39.706195894
H           -0.540466466         18.697042957         40.989479321
H           -1.005207374         20.120965383         41.908171644
H            1.055855828         20.852485202         39.970140028
H            1.683921530         19.480234418         40.901333416
H            0.765024911         20.777967018         43.043796206
H            0.474743123         22.748380456         40.853170095
H            0.648583745         23.358563310         42.530422278
H           -0.701792673         22.323719468         42.146253621
H            3.089408113         22.371634990         41.910474873
H            3.311368802         20.699084930         41.862111813
H            2.754676268         20.681552150         44.371296901
H            2.364281504         22.396569081         44.230018403
H            4.807124306         22.939077013         43.760161127
H            5.077396742         21.263279166         43.409452437
H            4.082018286         21.626775373         46.175869872
H            6.772053871         23.048966013         45.730734129
H            5.719353095         23.011408065         47.092053499
H            5.219831175         23.912196150         45.610238008
H            6.202257489         20.454612861         46.723357257
H            6.732992018         20.602030465         45.064312256
H            3.922804253         19.655654215         45.383670903
H            4.979815963         18.699043752         46.324726355
H            4.237580873         17.821054115         44.076680450
H            5.895073671         17.559177142         44.606208198
H            4.986391279         19.428019370         42.442522470
H            4.860757509         17.656328360         41.115777583
H            5.254485562         16.639944190         42.445434996
H            6.560956310         17.258501934         41.373868854
H            7.576961379         19.270067583         41.810306498
H            7.789857778         18.922780179         43.577053862
H            6.929891757         20.385791315         42.984224763